/*--------------------------------*- C++ -*----------------------------------*\
  =========                 |
  \\      /  F ield         | OpenFOAM: The Open Source CFD Toolbox
   \\    /   O peration     | Website:  https://openfoam.org
    \\  /    A nd           | Version:  9
     \\/     M anipulation  |
\*---------------------------------------------------------------------------*/
FoamFile
{
    format      ascii;
    class       polyBoundaryMesh;
    location    "constant/polyMesh";
    object      boundary;
}
// * * * * * * * * * * * * * * * * * * * * * * * * * * * * * * * * * * * * * //

4
(
    inlet
    {
        type            patch;
        nFaces          3;
        startFace       4305;
    }
    frontandback
    {
        type            empty;
        inGroups        List<word> 1(wall);
        nFaces          4430;
        startFace       4308;
    }
    walls
    {
        type            wall;
        inGroups        List<word> 1(wall);
        nFaces          225;
        startFace       8738;
    }
    outlet
    {
        type            patch;
        nFaces          22;
        startFace       8963;
    }
)

// ************************************************************************* //
