/*--------------------------------*- C++ -*----------------------------------*\
  =========                 |
  \\      /  F ield         | OpenFOAM: The Open Source CFD Toolbox
   \\    /   O peration     | Website:  https://openfoam.org
    \\  /    A nd           | Version:  9
     \\/     M anipulation  |
\*---------------------------------------------------------------------------*/
FoamFile
{
    format      ascii;
    class       dictionary;
    location    "system";
    object      fvSolution;
}
// * * * * * * * * * * * * * * * * * * * * * * * * * * * * * * * * * * * * * //

solvers
{
    "alpha.*"
    {
        nAlphaCorr      4;
        nAlphaSubCycles 3;
        cAlpha          3;
        MULEScorr       yes;
    }

    "Yi.*"
    {
        solver          smoothSolver;
        smoother        symGaussSeidel;
        tolerance       1e-15;
        relTol          1e-15;
        residualAlpha	1e-15;
        minIter		5;
	maxIter		100;
    }

    YiFinal
    {
        $Yi;
        tolerance       1e-16;
        relTol          1e-16;
    }

    p_rgh
    {
        solver          GAMG;
        smoother        DIC;
        tolerance       1e-9;
        relTol          0.001;
    }

    p_rghFinal
    {
        $p_rgh;
        relTol          0;
    }

    "U.*"
    {
        solver          smoothSolver;
        smoother        symGaussSeidel;
        tolerance       1e-9;
        relTol          0;
        minIter         1;
    }

    "(e|h).*"
    {
        solver          smoothSolver;
        smoother        symGaussSeidel;
        tolerance       1e-9;
        relTol          0;
        minIter         1;
    }

    "(k|epsilon).*"
    {
        solver          smoothSolver;
        smoother        symGaussSeidel;
        tolerance       1e-9;
        relTol          0;
        minIter         1;
    }


}

PIMPLE
{
    nOuterCorrectors 5;
    nCorrectors      1;
    nNonOrthogonalCorrectors 0;

}

relaxationFactors
{
    equations
    {
        ".*"            0.98;
    }
}


// ************************************************************************* //
